6

C 1.410020 0.001300 0.002240
O -0.011100 -0.009710 -0.016810
H 1.770400 1.030000 0.004330
H 1.781720 -0.510480 -0.884180
H 1.770400 -0.511250 0.894170
H -0.278100 0.462120 0.800410
6

C 1.410187 0.000748 0.002770
O -0.011071 -0.009687 -0.016821
H 1.770441 1.029954 0.004452
H 1.781698 -0.510438 -0.884251
H 1.770188 -0.510719 0.893600
H -0.278102 0.462123 0.800410
6

C 1.410354 0.000196 0.003300
O -0.011042 -0.009664 -0.016833
H 1.770482 1.029907 0.004574
H 1.781675 -0.510396 -0.884322
H 1.769975 -0.510189 0.893031
H -0.278104 0.462125 0.800410
6

C 1.410521 -0.000355 0.003829
O -0.011013 -0.009642 -0.016844
H 1.770524 1.029861 0.004696
H 1.781653 -0.510354 -0.884393
H 1.769763 -0.509658 0.892461
H -0.278107 0.462128 0.800410
6

C 1.410687 -0.000907 0.004359
O -0.010984 -0.009619 -0.016856
H 1.770565 1.029815 0.004818
H 1.781630 -0.510312 -0.884464
H 1.769551 -0.509128 0.891892
H -0.278109 0.462131 0.800411
6

C 1.410854 -0.001459 0.004889
O -0.010955 -0.009596 -0.016867
H 1.770606 1.029768 0.004940
H 1.781608 -0.510270 -0.884535
H 1.769338 -0.508597 0.891322
H -0.278111 0.462133 0.800411
6

C 1.411021 -0.002011 0.005419
O -0.010926 -0.009573 -0.016879
H 1.770647 1.029722 0.005062
H 1.781585 -0.510228 -0.884606
H 1.769126 -0.508066 0.890752
H -0.278113 0.462136 0.800411
6

C 1.411188 -0.002562 0.005949
O -0.010897 -0.009550 -0.016890
H 1.770688 1.029676 0.005184
H 1.781563 -0.510186 -0.884677
H 1.768913 -0.507536 0.890183
H -0.278115 0.462139 0.800411
6

C 1.411355 -0.003114 0.006479
O -0.010868 -0.009528 -0.016901
H 1.770730 1.029629 0.005306
H 1.781540 -0.510143 -0.884748
H 1.768701 -0.507005 0.889613
H -0.278118 0.462141 0.800411
6

C 1.411522 -0.003666 0.007008
O -0.010839 -0.009505 -0.016913
H 1.770771 1.029583 0.005428
H 1.781518 -0.510101 -0.884819
H 1.768489 -0.506475 0.889044
H -0.278120 0.462144 0.800411
6

C 1.411689 -0.004218 0.007538
O -0.010810 -0.009482 -0.016924
H 1.770812 1.029537 0.005550
H 1.781495 -0.510059 -0.884889
H 1.768276 -0.505944 0.888474
H -0.278122 0.462147 0.800411
6

C 1.411856 -0.004770 0.008068
O -0.010781 -0.009459 -0.016936
H 1.770853 1.029490 0.005672
H 1.781473 -0.510017 -0.884960
H 1.768064 -0.505413 0.887904
H -0.278124 0.462149 0.800412
6

C 1.412022 -0.005321 0.008598
O -0.010752 -0.009437 -0.016947
H 1.770894 1.029444 0.005794
H 1.781450 -0.509975 -0.885031
H 1.767852 -0.504883 0.887335
H -0.278126 0.462152 0.800412
6

C 1.412189 -0.005873 0.009128
O -0.010723 -0.009414 -0.016958
H 1.770936 1.029398 0.005916
H 1.781428 -0.509933 -0.885102
H 1.767639 -0.504352 0.886765
H -0.278129 0.462155 0.800412
6

C 1.412356 -0.006425 0.009657
O -0.010694 -0.009391 -0.016970
H 1.770977 1.029351 0.006038
H 1.781405 -0.509891 -0.885173
H 1.767427 -0.503822 0.886196
H -0.278131 0.462157 0.800412
6

C 1.412523 -0.006977 0.010187
O -0.010665 -0.009368 -0.016981
H 1.771018 1.029305 0.006160
H 1.781383 -0.509849 -0.885244
H 1.767215 -0.503291 0.885626
H -0.278133 0.462160 0.800412
6

C 1.412690 -0.007529 0.010717
O -0.010636 -0.009345 -0.016993
H 1.771059 1.029259 0.006282
H 1.781360 -0.509807 -0.885315
H 1.767002 -0.502760 0.885056
H -0.278135 0.462163 0.800412
6

C 1.412857 -0.008080 0.011247
O -0.010607 -0.009323 -0.017004
H 1.771100 1.029212 0.006404
H 1.781338 -0.509765 -0.885386
H 1.766790 -0.502230 0.884487
H -0.278137 0.462165 0.800413
6

C 1.413024 -0.008632 0.011777
O -0.010578 -0.009300 -0.017016
H 1.771142 1.029166 0.006526
H 1.781315 -0.509723 -0.885457
H 1.766578 -0.501699 0.883917
H -0.278140 0.462168 0.800413
6

C 1.413191 -0.009184 0.012306
O -0.010549 -0.009277 -0.017027
H 1.771183 1.029120 0.006648
H 1.781293 -0.509681 -0.885528
H 1.766365 -0.501169 0.883348
H -0.278142 0.462171 0.800413
6

C 1.413357 -0.009736 0.012836
O -0.010520 -0.009254 -0.017038
H 1.771224 1.029073 0.006770
H 1.781270 -0.509639 -0.885599
H 1.766153 -0.500638 0.882778
H -0.278144 0.462173 0.800413
6

C 1.413524 -0.010287 0.013366
O -0.010491 -0.009231 -0.017050
H 1.771265 1.029027 0.006892
H 1.781248 -0.509597 -0.885670
H 1.765940 -0.500107 0.882208
H -0.278146 0.462176 0.800413
6

C 1.413691 -0.010839 0.013896
O -0.010462 -0.009209 -0.017061
H 1.771306 1.028981 0.007014
H 1.781225 -0.509555 -0.885741
H 1.765728 -0.499577 0.881639
H -0.278148 0.462179 0.800413
6

C 1.413858 -0.011391 0.014426
O -0.010433 -0.009186 -0.017073
H 1.771348 1.028934 0.007136
H 1.781203 -0.509513 -0.885812
H 1.765516 -0.499046 0.881069
H -0.278151 0.462181 0.800413
6

C 1.414025 -0.011943 0.014956
O -0.010405 -0.009163 -0.017084
H 1.771389 1.028888 0.007258
H 1.781180 -0.509470 -0.885883
H 1.765303 -0.498516 0.880500
H -0.278153 0.462184 0.800414
6

C 1.414192 -0.012495 0.015485
O -0.010376 -0.009140 -0.017095
H 1.771430 1.028842 0.007380
H 1.781158 -0.509428 -0.885954
H 1.765091 -0.497985 0.879930
H -0.278155 0.462187 0.800414
6

C 1.414359 -0.013046 0.016015
O -0.010347 -0.009118 -0.017107
H 1.771471 1.028795 0.007502
H 1.781135 -0.509386 -0.886025
H 1.764879 -0.497454 0.879360
H -0.278157 0.462189 0.800414
6

C 1.414526 -0.013598 0.016545
O -0.010318 -0.009095 -0.017118
H 1.771512 1.028749 0.007624
H 1.781113 -0.509344 -0.886096
H 1.764666 -0.496924 0.878791
H -0.278160 0.462192 0.800414
6

C 1.414692 -0.014150 0.017075
O -0.010289 -0.009072 -0.017130
H 1.771554 1.028703 0.007746
H 1.781090 -0.509302 -0.886167
H 1.764454 -0.496393 0.878221
H -0.278162 0.462195 0.800414
6

C 1.414859 -0.014702 0.017605
O -0.010260 -0.009049 -0.017141
H 1.771595 1.028656 0.007868
H 1.781068 -0.509260 -0.886238
H 1.764242 -0.495863 0.877652
H -0.278164 0.462197 0.800414
6

C 1.415026 -0.015254 0.018134
O -0.010231 -0.009026 -0.017153
H 1.771636 1.028610 0.007990
H 1.781045 -0.509218 -0.886308
H 1.764029 -0.495332 0.877082
H -0.278166 0.462200 0.800414
6

C 1.415193 -0.015805 0.018664
O -0.010202 -0.009004 -0.017164
H 1.771677 1.028564 0.008112
H 1.781023 -0.509176 -0.886379
H 1.763817 -0.494801 0.876513
H -0.278168 0.462203 0.800415
6

C 1.415360 -0.016357 0.019194
O -0.010173 -0.008981 -0.017175
H 1.771718 1.028517 0.008234
H 1.781000 -0.509134 -0.886450
H 1.763604 -0.494271 0.875943
H -0.278171 0.462205 0.800415
6

C 1.415527 -0.016909 0.019724
O -0.010144 -0.008958 -0.017187
H 1.771760 1.028471 0.008356
H 1.780978 -0.509092 -0.886521
H 1.763392 -0.493740 0.875373
H -0.278173 0.462208 0.800415
6

C 1.415694 -0.017461 0.020254
O -0.010115 -0.008935 -0.017198
H 1.771801 1.028425 0.008478
H 1.780955 -0.509050 -0.886592
H 1.763180 -0.493210 0.874804
H -0.278175 0.462211 0.800415
6

C 1.415861 -0.018012 0.020783
O -0.010086 -0.008912 -0.017210
H 1.771842 1.028378 0.008600
H 1.780933 -0.509008 -0.886663
H 1.762967 -0.492679 0.874234
H -0.278177 0.462213 0.800415
6

C 1.416027 -0.018564 0.021313
O -0.010057 -0.008890 -0.017221
H 1.771883 1.028332 0.008722
H 1.780910 -0.508966 -0.886734
H 1.762755 -0.492148 0.873665
H -0.278179 0.462216 0.800415
6

C 1.416194 -0.019116 0.021843
O -0.010028 -0.008867 -0.017232
H 1.771924 1.028286 0.008844
H 1.780888 -0.508924 -0.886805
H 1.762543 -0.491618 0.873095
H -0.278182 0.462219 0.800416
6

C 1.416361 -0.019668 0.022373
O -0.009999 -0.008844 -0.017244
H 1.771966 1.028239 0.008966
H 1.780865 -0.508882 -0.886876
H 1.762330 -0.491087 0.872525
H -0.278184 0.462221 0.800416
6

C 1.416528 -0.020220 0.022903
O -0.009970 -0.008821 -0.017255
H 1.772007 1.028193 0.009088
H 1.780843 -0.508840 -0.886947
H 1.762118 -0.490557 0.871956
H -0.278186 0.462224 0.800416
6

C 1.416695 -0.020771 0.023433
O -0.009941 -0.008798 -0.017267
H 1.772048 1.028147 0.009210
H 1.780820 -0.508797 -0.887018
H 1.761906 -0.490026 0.871386
H -0.278188 0.462227 0.800416
6

C 1.416862 -0.021323 0.023962
O -0.009912 -0.008776 -0.017278
H 1.772089 1.028100 0.009332
H 1.780798 -0.508755 -0.887089
H 1.761693 -0.489495 0.870817
H -0.278190 0.462229 0.800416
6

C 1.417029 -0.021875 0.024492
O -0.009883 -0.008753 -0.017290
H 1.772130 1.028054 0.009454
H 1.780775 -0.508713 -0.887160
H 1.761481 -0.488965 0.870247
H -0.278193 0.462232 0.800416
6

C 1.417196 -0.022427 0.025022
O -0.009854 -0.008730 -0.017301
H 1.772172 1.028008 0.009576
H 1.780753 -0.508671 -0.887231
H 1.761268 -0.488434 0.869677
H -0.278195 0.462235 0.800416
6

C 1.417362 -0.022979 0.025552
O -0.009825 -0.008707 -0.017312
H 1.772213 1.027961 0.009698
H 1.780731 -0.508629 -0.887302
H 1.761056 -0.487903 0.869108
H -0.278197 0.462237 0.800417
6

C 1.417529 -0.023530 0.026082
O -0.009796 -0.008685 -0.017324
H 1.772254 1.027915 0.009820
H 1.780708 -0.508587 -0.887373
H 1.760844 -0.487373 0.868538
H -0.278199 0.462240 0.800417
6

C 1.417696 -0.024082 0.026611
O -0.009767 -0.008662 -0.017335
H 1.772295 1.027869 0.009942
H 1.780686 -0.508545 -0.887444
H 1.760631 -0.486842 0.867969
H -0.278201 0.462243 0.800417
6

C 1.417863 -0.024634 0.027141
O -0.009738 -0.008639 -0.017347
H 1.772336 1.027822 0.010064
H 1.780663 -0.508503 -0.887515
H 1.760419 -0.486312 0.867399
H -0.278204 0.462245 0.800417
6

C 1.418030 -0.025186 0.027671
O -0.009709 -0.008616 -0.017358
H 1.772378 1.027776 0.010186
H 1.780641 -0.508461 -0.887586
H 1.760207 -0.485781 0.866829
H -0.278206 0.462248 0.800417
6

C 1.418197 -0.025737 0.028201
O -0.009680 -0.008593 -0.017370
H 1.772419 1.027730 0.010308
H 1.780618 -0.508419 -0.887657
H 1.759994 -0.485250 0.866260
H -0.278208 0.462251 0.800417
6

C 1.418364 -0.026289 0.028731
O -0.009651 -0.008571 -0.017381
H 1.772460 1.027683 0.010430
H 1.780596 -0.508377 -0.887727
H 1.759782 -0.484720 0.865690
H -0.278210 0.462253 0.800417
6

C 1.418531 -0.026841 0.029260
O -0.009622 -0.008548 -0.017392
H 1.772501 1.027637 0.010552
H 1.780573 -0.508335 -0.887798
H 1.759570 -0.484189 0.865121
H -0.278212 0.462256 0.800418
6

C 1.418697 -0.027393 0.029790
O -0.009593 -0.008525 -0.017404
H 1.772542 1.027591 0.010674
H 1.780551 -0.508293 -0.887869
H 1.759357 -0.483659 0.864551
H -0.278215 0.462259 0.800418
6

C 1.418864 -0.027945 0.030320
O -0.009564 -0.008502 -0.017415
H 1.772584 1.027544 0.010796
H 1.780528 -0.508251 -0.887940
H 1.759145 -0.483128 0.863981
H -0.278217 0.462261 0.800418
6

C 1.419031 -0.028496 0.030850
O -0.009535 -0.008479 -0.017427
H 1.772625 1.027498 0.010918
H 1.780506 -0.508209 -0.888011
H 1.758933 -0.482597 0.863412
H -0.278219 0.462264 0.800418
6

C 1.419198 -0.029048 0.031380
O -0.009506 -0.008457 -0.017438
H 1.772666 1.027452 0.011040
H 1.780483 -0.508167 -0.888082
H 1.758720 -0.482067 0.862842
H -0.278221 0.462267 0.800418
6

C 1.419365 -0.029600 0.031910
O -0.009477 -0.008434 -0.017449
H 1.772707 1.027405 0.011162
H 1.780461 -0.508124 -0.888153
H 1.758508 -0.481536 0.862273
H -0.278223 0.462269 0.800418
6

C 1.419532 -0.030152 0.032439
O -0.009448 -0.008411 -0.017461
H 1.772748 1.027359 0.011284
H 1.780438 -0.508082 -0.888224
H 1.758295 -0.481006 0.861703
H -0.278226 0.462272 0.800419
6

C 1.419699 -0.030704 0.032969
O -0.009419 -0.008388 -0.017472
H 1.772790 1.027313 0.011406
H 1.780416 -0.508040 -0.888295
H 1.758083 -0.480475 0.861133
H -0.278228 0.462275 0.800419
6

C 1.419866 -0.031255 0.033499
O -0.009390 -0.008365 -0.017484
H 1.772831 1.027266 0.011528
H 1.780393 -0.507998 -0.888366
H 1.757871 -0.479944 0.860564
H -0.278230 0.462277 0.800419
6

C 1.420032 -0.031807 0.034029
O -0.009361 -0.008343 -0.017495
H 1.772872 1.027220 0.011650
H 1.780371 -0.507956 -0.888437
H 1.757658 -0.479414 0.859994
H -0.278232 0.462280 0.800419
6

C 1.420199 -0.032359 0.034559
O -0.009332 -0.008320 -0.017507
H 1.772913 1.027174 0.011772
H 1.780348 -0.507914 -0.888508
H 1.757446 -0.478883 0.859425
H -0.278234 0.462283 0.800419
6

C 1.420366 -0.032911 0.035088
O -0.009303 -0.008297 -0.017518
H 1.772954 1.027127 0.011894
H 1.780326 -0.507872 -0.888579
H 1.757234 -0.478353 0.858855
H -0.278237 0.462285 0.800419
6

C 1.420533 -0.033462 0.035618
O -0.009274 -0.008274 -0.017529
H 1.772996 1.027081 0.012016
H 1.780303 -0.507830 -0.888650
H 1.757021 -0.477822 0.858285
H -0.278239 0.462288 0.800419
6

C 1.420700 -0.034014 0.036148
O -0.009245 -0.008252 -0.017541
H 1.773037 1.027035 0.012138
H 1.780281 -0.507788 -0.888721
H 1.756809 -0.477291 0.857716
H -0.278241 0.462291 0.800420
6

C 1.420867 -0.034566 0.036678
O -0.009216 -0.008229 -0.017552
H 1.773078 1.026988 0.012260
H 1.780258 -0.507746 -0.888792
H 1.756597 -0.476761 0.857146
H -0.278243 0.462293 0.800420
6

C 1.421034 -0.035118 0.037208
O -0.009187 -0.008206 -0.017564
H 1.773119 1.026942 0.012382
H 1.780236 -0.507704 -0.888863
H 1.756384 -0.476230 0.856577
H -0.278245 0.462296 0.800420
6

C 1.421201 -0.035670 0.037737
O -0.009158 -0.008183 -0.017575
H 1.773160 1.026896 0.012504
H 1.780213 -0.507662 -0.888934
H 1.756172 -0.475700 0.856007
H -0.278248 0.462299 0.800420
6

C 1.421367 -0.036221 0.038267
O -0.009129 -0.008160 -0.017586
H 1.773202 1.026849 0.012626
H 1.780191 -0.507620 -0.889005
H 1.755959 -0.475169 0.855437
H -0.278250 0.462301 0.800420
6

C 1.421534 -0.036773 0.038797
O -0.009100 -0.008138 -0.017598
H 1.773243 1.026803 0.012748
H 1.780168 -0.507578 -0.889076
H 1.755747 -0.474638 0.854868
H -0.278252 0.462304 0.800420
6

C 1.421701 -0.037325 0.039327
O -0.009071 -0.008115 -0.017609
H 1.773284 1.026757 0.012870
H 1.780146 -0.507536 -0.889146
H 1.755535 -0.474108 0.854298
H -0.278254 0.462307 0.800420
6

C 1.421868 -0.037877 0.039857
O -0.009042 -0.008092 -0.017621
H 1.773325 1.026710 0.012992
H 1.780123 -0.507494 -0.889217
H 1.755322 -0.473577 0.853729
H -0.278256 0.462309 0.800421
6

C 1.422035 -0.038429 0.040387
O -0.009014 -0.008069 -0.017632
H 1.773366 1.026664 0.013114
H 1.780101 -0.507451 -0.889288
H 1.755110 -0.473047 0.853159
H -0.278259 0.462312 0.800421
6

C 1.422202 -0.038980 0.040916
O -0.008985 -0.008046 -0.017644
H 1.773408 1.026618 0.013236
H 1.780078 -0.507409 -0.889359
H 1.754898 -0.472516 0.852589
H -0.278261 0.462315 0.800421
6

C 1.422369 -0.039532 0.041446
O -0.008956 -0.008024 -0.017655
H 1.773449 1.026571 0.013358
H 1.780056 -0.507367 -0.889430
H 1.754685 -0.471985 0.852020
H -0.278263 0.462317 0.800421
6

C 1.422536 -0.040084 0.041976
O -0.008927 -0.008001 -0.017666
H 1.773490 1.026525 0.013480
H 1.780033 -0.507325 -0.889501
H 1.754473 -0.471455 0.851450
H -0.278265 0.462320 0.800421
6

C 1.422702 -0.040636 0.042506
O -0.008898 -0.007978 -0.017678
H 1.773531 1.026479 0.013602
H 1.780011 -0.507283 -0.889572
H 1.754261 -0.470924 0.850881
H -0.278268 0.462323 0.800421
6

C 1.422869 -0.041187 0.043036
O -0.008869 -0.007955 -0.017689
H 1.773572 1.026432 0.013724
H 1.779988 -0.507241 -0.889643
H 1.754048 -0.470394 0.850311
H -0.278270 0.462325 0.800422
6

C 1.423036 -0.041739 0.043565
O -0.008840 -0.007933 -0.017701
H 1.773614 1.026386 0.013846
H 1.779966 -0.507199 -0.889714
H 1.753836 -0.469863 0.849741
H -0.278272 0.462328 0.800422
6

C 1.423203 -0.042291 0.044095
O -0.008811 -0.007910 -0.017712
H 1.773655 1.026340 0.013968
H 1.779943 -0.507157 -0.889785
H 1.753624 -0.469332 0.849172
H -0.278274 0.462331 0.800422
6

C 1.423370 -0.042843 0.044625
O -0.008782 -0.007887 -0.017723
H 1.773696 1.026293 0.014090
H 1.779921 -0.507115 -0.889856
H 1.753411 -0.468802 0.848602
H -0.278276 0.462333 0.800422
6

C 1.423537 -0.043395 0.045155
O -0.008753 -0.007864 -0.017735
H 1.773737 1.026247 0.014212
H 1.779898 -0.507073 -0.889927
H 1.753199 -0.468271 0.848033
H -0.278279 0.462336 0.800422
6

C 1.423704 -0.043946 0.045685
O -0.008724 -0.007841 -0.017746
H 1.773778 1.026201 0.014334
H 1.779876 -0.507031 -0.889998
H 1.752986 -0.467741 0.847463
H -0.278281 0.462339 0.800422
6

C 1.423871 -0.044498 0.046215
O -0.008695 -0.007819 -0.017758
H 1.773820 1.026154 0.014456
H 1.779853 -0.506989 -0.890069
H 1.752774 -0.467210 0.846894
H -0.278283 0.462341 0.800422
6

C 1.424037 -0.045050 0.046744
O -0.008666 -0.007796 -0.017769
H 1.773861 1.026108 0.014578
H 1.779831 -0.506947 -0.890140
H 1.752562 -0.466679 0.846324
H -0.278285 0.462344 0.800423
6

C 1.424204 -0.045602 0.047274
O -0.008637 -0.007773 -0.017781
H 1.773902 1.026062 0.014700
H 1.779808 -0.506905 -0.890211
H 1.752349 -0.466149 0.845754
H -0.278287 0.462347 0.800423
6

C 1.424371 -0.046154 0.047804
O -0.008608 -0.007750 -0.017792
H 1.773943 1.026015 0.014822
H 1.779786 -0.506863 -0.890282
H 1.752137 -0.465618 0.845185
H -0.278290 0.462349 0.800423
6

C 1.424538 -0.046705 0.048334
O -0.008579 -0.007727 -0.017803
H 1.773984 1.025969 0.014944
H 1.779763 -0.506821 -0.890353
H 1.751925 -0.465088 0.844615
H -0.278292 0.462352 0.800423
6

C 1.424705 -0.047257 0.048864
O -0.008550 -0.007705 -0.017815
H 1.774026 1.025923 0.015066
H 1.779741 -0.506778 -0.890424
H 1.751712 -0.464557 0.844046
H -0.278294 0.462355 0.800423
6

C 1.424872 -0.047809 0.049393
O -0.008521 -0.007682 -0.017826
H 1.774067 1.025876 0.015188
H 1.779719 -0.506736 -0.890494
H 1.751500 -0.464026 0.843476
H -0.278296 0.462357 0.800423
6

C 1.425039 -0.048361 0.049923
O -0.008492 -0.007659 -0.017838
H 1.774108 1.025830 0.015310
H 1.779696 -0.506694 -0.890565
H 1.751288 -0.463496 0.842906
H -0.278298 0.462360 0.800423
6

C 1.425206 -0.048912 0.050453
O -0.008463 -0.007636 -0.017849
H 1.774149 1.025784 0.015432
H 1.779674 -0.506652 -0.890636
H 1.751075 -0.462965 0.842337
H -0.278301 0.462363 0.800424
6

C 1.425372 -0.049464 0.050983
O -0.008434 -0.007613 -0.017861
H 1.774190 1.025737 0.015554
H 1.779651 -0.506610 -0.890707
H 1.750863 -0.462435 0.841767
H -0.278303 0.462365 0.800424
6

C 1.425539 -0.050016 0.051513
O -0.008405 -0.007591 -0.017872
H 1.774232 1.025691 0.015676
H 1.779629 -0.506568 -0.890778
H 1.750650 -0.461904 0.841198
H -0.278305 0.462368 0.800424
6

C 1.425706 -0.050568 0.052042
O -0.008376 -0.007568 -0.017883
H 1.774273 1.025645 0.015798
H 1.779606 -0.506526 -0.890849
H 1.750438 -0.461373 0.840628
H -0.278307 0.462371 0.800424
6

C 1.425873 -0.051120 0.052572
O -0.008347 -0.007545 -0.017895
H 1.774314 1.025598 0.015920
H 1.779584 -0.506484 -0.890920
H 1.750226 -0.460843 0.840058
H -0.278309 0.462373 0.800424
6

C 1.426040 -0.051671 0.053102
O -0.008318 -0.007522 -0.017906
H 1.774355 1.025552 0.016042
H 1.779561 -0.506442 -0.890991
H 1.750013 -0.460312 0.839489
H -0.278312 0.462376 0.800424
6

C 1.426207 -0.052223 0.053632
O -0.008289 -0.007500 -0.017918
H 1.774396 1.025506 0.016164
H 1.779539 -0.506400 -0.891062
H 1.749801 -0.459782 0.838919
H -0.278314 0.462379 0.800425
6

C 1.426374 -0.052775 0.054162
O -0.008260 -0.007477 -0.017929
H 1.774438 1.025459 0.016286
H 1.779516 -0.506358 -0.891133
H 1.749589 -0.459251 0.838350
H -0.278316 0.462381 0.800425
6

C 1.426541 -0.053327 0.054692
O -0.008231 -0.007454 -0.017940
H 1.774479 1.025413 0.016408
H 1.779494 -0.506316 -0.891204
H 1.749376 -0.458720 0.837780
H -0.278318 0.462384 0.800425
