6

C 1.410020 0.001300 0.002240
O -0.011100 -0.009710 -0.016810
H 1.770400 1.030000 0.004330
H 1.781720 -0.510480 -0.884180
H 1.770400 -0.511250 0.894170
H -0.278100 0.462120 0.800410
6

C 1.409970 0.001302 0.002243
O -0.010736 -0.010288 -0.017804
H 1.770405 1.030008 0.004333
H 1.781721 -0.510475 -0.884179
H 1.770392 -0.511247 0.894164
H -0.278412 0.462680 0.801402
6

C 1.409920 0.001305 0.002246
O -0.010371 -0.010866 -0.018797
H 1.770410 1.030016 0.004336
H 1.781722 -0.510470 -0.884178
H 1.770384 -0.511245 0.894158
H -0.278725 0.463239 0.802395
6

C 1.409870 0.001307 0.002249
O -0.010007 -0.011443 -0.019791
H 1.770414 1.030024 0.004339
H 1.781723 -0.510464 -0.884177
H 1.770377 -0.511242 0.894153
H -0.279037 0.463799 0.803387
6

C 1.409819 0.001310 0.002251
O -0.009643 -0.012021 -0.020784
H 1.770419 1.030032 0.004343
H 1.781724 -0.510459 -0.884176
H 1.770369 -0.511239 0.894147
H -0.279349 0.464358 0.804380
6

C 1.409769 0.001312 0.002254
O -0.009279 -0.012599 -0.021778
H 1.770424 1.030039 0.004346
H 1.781726 -0.510454 -0.884176
H 1.770361 -0.511237 0.894141
H -0.279661 0.464918 0.805372
6

C 1.409719 0.001315 0.002257
O -0.008914 -0.013177 -0.022771
H 1.770429 1.030047 0.004349
H 1.781727 -0.510449 -0.884175
H 1.770353 -0.511234 0.894135
H -0.279974 0.465477 0.806365
6

C 1.409669 0.001317 0.002260
O -0.008550 -0.013754 -0.023765
H 1.770434 1.030055 0.004352
H 1.781728 -0.510443 -0.884174
H 1.770346 -0.511231 0.894129
H -0.280286 0.466037 0.807357
6

C 1.409619 0.001320 0.002263
O -0.008186 -0.014332 -0.024758
H 1.770439 1.030063 0.004355
H 1.781729 -0.510438 -0.884173
H 1.770338 -0.511229 0.894123
H -0.280598 0.466596 0.808350
6

C 1.409569 0.001322 0.002266
O -0.007822 -0.014910 -0.025752
H 1.770443 1.030071 0.004358
H 1.781730 -0.510433 -0.884172
H 1.770330 -0.511226 0.894118
H -0.280911 0.467156 0.809342
6

C 1.409519 0.001325 0.002269
O -0.007457 -0.015488 -0.026746
H 1.770448 1.030079 0.004362
H 1.781731 -0.510428 -0.884171
H 1.770322 -0.511223 0.894112
H -0.281223 0.467715 0.810335
6

C 1.409468 0.001327 0.002271
O -0.007093 -0.016065 -0.027739
H 1.770453 1.030087 0.004365
H 1.781732 -0.510423 -0.884170
H 1.770315 -0.511221 0.894106
H -0.281535 0.468275 0.811327
6

C 1.409418 0.001330 0.002274
O -0.006729 -0.016643 -0.028733
H 1.770458 1.030095 0.004368
H 1.781733 -0.510417 -0.884169
H 1.770307 -0.511218 0.894100
H -0.281847 0.468834 0.812320
6

C 1.409368 0.001332 0.002277
O -0.006365 -0.017221 -0.029726
H 1.770463 1.030102 0.004371
H 1.781734 -0.510412 -0.884168
H 1.770299 -0.511215 0.894094
H -0.282160 0.469394 0.813312
6

C 1.409318 0.001335 0.002280
O -0.006000 -0.017799 -0.030720
H 1.770467 1.030110 0.004374
H 1.781736 -0.510407 -0.884168
H 1.770291 -0.511213 0.894088
H -0.282472 0.469953 0.814305
6

C 1.409268 0.001337 0.002283
O -0.005636 -0.018376 -0.031713
H 1.770472 1.030118 0.004377
H 1.781737 -0.510402 -0.884167
H 1.770284 -0.511210 0.894083
H -0.282784 0.470513 0.815297
6

C 1.409218 0.001339 0.002286
O -0.005272 -0.018954 -0.032707
H 1.770477 1.030126 0.004381
H 1.781738 -0.510396 -0.884166
H 1.770276 -0.511207 0.894077
H -0.283097 0.471072 0.816290
6

C 1.409168 0.001342 0.002289
O -0.004908 -0.019532 -0.033700
H 1.770482 1.030134 0.004384
H 1.781739 -0.510391 -0.884165
H 1.770268 -0.511205 0.894071
H -0.283409 0.471632 0.817282
6

C 1.409117 0.001344 0.002291
O -0.004543 -0.020110 -0.034694
H 1.770487 1.030142 0.004387
H 1.781740 -0.510386 -0.884164
H 1.770260 -0.511202 0.894065
H -0.283721 0.472191 0.818275
6

C 1.409067 0.001347 0.002294
O -0.004179 -0.020687 -0.035687
H 1.770492 1.030150 0.004390
H 1.781741 -0.510381 -0.884163
H 1.770253 -0.511199 0.894059
H -0.284034 0.472751 0.819267
6

C 1.409017 0.001349 0.002297
O -0.003815 -0.021265 -0.036681
H 1.770496 1.030158 0.004393
H 1.781742 -0.510376 -0.884162
H 1.770245 -0.511197 0.894053
H -0.284346 0.473310 0.820260
6

C 1.408967 0.001352 0.002300
O -0.003450 -0.021843 -0.037675
H 1.770501 1.030165 0.004396
H 1.781743 -0.510370 -0.884161
H 1.770237 -0.511194 0.894048
H -0.284658 0.473870 0.821252
6

C 1.408917 0.001354 0.002303
O -0.003086 -0.022421 -0.038668
H 1.770506 1.030173 0.004399
H 1.781745 -0.510365 -0.884160
H 1.770229 -0.511191 0.894042
H -0.284970 0.474430 0.822244
6

C 1.408867 0.001357 0.002306
O -0.002722 -0.022998 -0.039662
H 1.770511 1.030181 0.004403
H 1.781746 -0.510360 -0.884160
H 1.770222 -0.511189 0.894036
H -0.285283 0.474989 0.823237
6

C 1.408816 0.001359 0.002309
O -0.002358 -0.023576 -0.040655
H 1.770516 1.030189 0.004406
H 1.781747 -0.510355 -0.884159
H 1.770214 -0.511186 0.894030
H -0.285595 0.475549 0.824229
6

C 1.408766 0.001362 0.002311
O -0.001993 -0.024154 -0.041649
H 1.770520 1.030197 0.004409
H 1.781748 -0.510349 -0.884158
H 1.770206 -0.511183 0.894024
H -0.285907 0.476108 0.825222
6

C 1.408716 0.001364 0.002314
O -0.001629 -0.024732 -0.042642
H 1.770525 1.030205 0.004412
H 1.781749 -0.510344 -0.884157
H 1.770198 -0.511181 0.894018
H -0.286220 0.476668 0.826214
6

C 1.408666 0.001367 0.002317
O -0.001265 -0.025309 -0.043636
H 1.770530 1.030213 0.004415
H 1.781750 -0.510339 -0.884156
H 1.770191 -0.511178 0.894013
H -0.286532 0.477227 0.827207
6

C 1.408616 0.001369 0.002320
O -0.000901 -0.025887 -0.044629
H 1.770535 1.030221 0.004418
H 1.781751 -0.510334 -0.884155
H 1.770183 -0.511175 0.894007
H -0.286844 0.477787 0.828199
6

C 1.408566 0.001371 0.002323
O -0.000536 -0.026465 -0.045623
H 1.770540 1.030228 0.004422
H 1.781752 -0.510329 -0.884154
H 1.770175 -0.511173 0.894001
H -0.287156 0.478346 0.829192
6

C 1.408516 0.001374 0.002326
O -0.000172 -0.027043 -0.046617
H 1.770544 1.030236 0.004425
H 1.781753 -0.510323 -0.884153
H 1.770167 -0.511170 0.893995
H -0.287469 0.478906 0.830184
6

C 1.408465 0.001376 0.002329
O 0.000192 -0.027620 -0.047610
H 1.770549 1.030244 0.004428
H 1.781755 -0.510318 -0.884152
H 1.770160 -0.511167 0.893989
H -0.287781 0.479465 0.831177
6

C 1.408415 0.001379 0.002331
O 0.000556 -0.028198 -0.048604
H 1.770554 1.030252 0.004431
H 1.781756 -0.510313 -0.884152
H 1.770152 -0.511165 0.893983
H -0.288093 0.480025 0.832169
6

C 1.408365 0.001381 0.002334
O 0.000921 -0.028776 -0.049597
H 1.770559 1.030260 0.004434
H 1.781757 -0.510308 -0.884151
H 1.770144 -0.511162 0.893978
H -0.288406 0.480584 0.833162
6

C 1.408315 0.001384 0.002337
O 0.001285 -0.029354 -0.050591
H 1.770564 1.030268 0.004437
H 1.781758 -0.510302 -0.884150
H 1.770136 -0.511159 0.893972
H -0.288718 0.481144 0.834154
6

C 1.408265 0.001386 0.002340
O 0.001649 -0.029931 -0.051584
H 1.770569 1.030276 0.004441
H 1.781759 -0.510297 -0.884149
H 1.770129 -0.511157 0.893966
H -0.289030 0.481703 0.835147
6

C 1.408215 0.001389 0.002343
O 0.002013 -0.030509 -0.052578
H 1.770573 1.030284 0.004444
H 1.781760 -0.510292 -0.884148
H 1.770121 -0.511154 0.893960
H -0.289342 0.482263 0.836139
6

C 1.408165 0.001391 0.002346
O 0.002378 -0.031087 -0.053571
H 1.770578 1.030291 0.004447
H 1.781761 -0.510287 -0.884147
H 1.770113 -0.511151 0.893954
H -0.289655 0.482822 0.837132
6

C 1.408114 0.001394 0.002349
O 0.002742 -0.031665 -0.054565
H 1.770583 1.030299 0.004450
H 1.781762 -0.510282 -0.884146
H 1.770105 -0.511149 0.893948
H -0.289967 0.483382 0.838124
6

C 1.408064 0.001396 0.002351
O 0.003106 -0.032242 -0.055558
H 1.770588 1.030307 0.004453
H 1.781763 -0.510276 -0.884145
H 1.770097 -0.511146 0.893943
H -0.290279 0.483941 0.839117
6

C 1.408014 0.001399 0.002354
O 0.003471 -0.032820 -0.056552
H 1.770593 1.030315 0.004456
H 1.781765 -0.510271 -0.884144
H 1.770090 -0.511143 0.893937
H -0.290592 0.484501 0.840109
6

C 1.407964 0.001401 0.002357
O 0.003835 -0.033398 -0.057546
H 1.770597 1.030323 0.004459
H 1.781766 -0.510266 -0.884143
H 1.770082 -0.511141 0.893931
H -0.290904 0.485060 0.841101
6

C 1.407914 0.001404 0.002360
O 0.004199 -0.033976 -0.058539
H 1.770602 1.030331 0.004463
H 1.781767 -0.510261 -0.884143
H 1.770074 -0.511138 0.893925
H -0.291216 0.485620 0.842094
6

C 1.407864 0.001406 0.002363
O 0.004563 -0.034553 -0.059533
H 1.770607 1.030339 0.004466
H 1.781768 -0.510255 -0.884142
H 1.770066 -0.511135 0.893919
H -0.291528 0.486180 0.843086
6

C 1.407814 0.001408 0.002366
O 0.004928 -0.035131 -0.060526
H 1.770612 1.030347 0.004469
H 1.781769 -0.510250 -0.884141
H 1.770059 -0.511133 0.893914
H -0.291841 0.486739 0.844079
6

C 1.407763 0.001411 0.002369
O 0.005292 -0.035709 -0.061520
H 1.770617 1.030354 0.004472
H 1.781770 -0.510245 -0.884140
H 1.770051 -0.511130 0.893908
H -0.292153 0.487299 0.845071
6

C 1.407713 0.001413 0.002371
O 0.005656 -0.036287 -0.062513
H 1.770622 1.030362 0.004475
H 1.781771 -0.510240 -0.884139
H 1.770043 -0.511127 0.893902
H -0.292465 0.487858 0.846064
6

C 1.407663 0.001416 0.002374
O 0.006020 -0.036864 -0.063507
H 1.770626 1.030370 0.004478
H 1.781772 -0.510235 -0.884138
H 1.770035 -0.511125 0.893896
H -0.292778 0.488418 0.847056
6

C 1.407613 0.001418 0.002377
O 0.006385 -0.037442 -0.064500
H 1.770631 1.030378 0.004482
H 1.781773 -0.510229 -0.884137
H 1.770028 -0.511122 0.893890
H -0.293090 0.488977 0.848049
6

C 1.407563 0.001421 0.002380
O 0.006749 -0.038020 -0.065494
H 1.770636 1.030386 0.004485
H 1.781775 -0.510224 -0.884136
H 1.770020 -0.511119 0.893884
H -0.293402 0.489537 0.849041
6

C 1.407513 0.001423 0.002383
O 0.007113 -0.038598 -0.066488
H 1.770641 1.030394 0.004488
H 1.781776 -0.510219 -0.884135
H 1.770012 -0.511117 0.893879
H -0.293714 0.490096 0.850034
6

C 1.407463 0.001426 0.002386
O 0.007477 -0.039175 -0.067481
H 1.770646 1.030402 0.004491
H 1.781777 -0.510214 -0.884135
H 1.770004 -0.511114 0.893873
H -0.294027 0.490656 0.851026
6

C 1.407412 0.001428 0.002389
O 0.007842 -0.039753 -0.068475
H 1.770650 1.030410 0.004494
H 1.781778 -0.510208 -0.884134
H 1.769997 -0.511111 0.893867
H -0.294339 0.491215 0.852019
6

C 1.407362 0.001431 0.002391
O 0.008206 -0.040331 -0.069468
H 1.770655 1.030417 0.004497
H 1.781779 -0.510203 -0.884133
H 1.769989 -0.511109 0.893861
H -0.294651 0.491775 0.853011
6

C 1.407312 0.001433 0.002394
O 0.008570 -0.040909 -0.070462
H 1.770660 1.030425 0.004501
H 1.781780 -0.510198 -0.884132
H 1.769981 -0.511106 0.893855
H -0.294964 0.492334 0.854004
6

C 1.407262 0.001436 0.002397
O 0.008934 -0.041486 -0.071455
H 1.770665 1.030433 0.004504
H 1.781781 -0.510193 -0.884131
H 1.769973 -0.511103 0.893849
H -0.295276 0.492894 0.854996
6

C 1.407212 0.001438 0.002400
O 0.009299 -0.042064 -0.072449
H 1.770670 1.030441 0.004507
H 1.781782 -0.510188 -0.884130
H 1.769966 -0.511101 0.893844
H -0.295588 0.493453 0.855989
6

C 1.407162 0.001440 0.002403
O 0.009663 -0.042642 -0.073442
H 1.770675 1.030449 0.004510
H 1.781784 -0.510182 -0.884129
H 1.769958 -0.511098 0.893838
H -0.295901 0.494013 0.856981
6

C 1.407112 0.001443 0.002406
O 0.010027 -0.043220 -0.074436
H 1.770679 1.030457 0.004513
H 1.781785 -0.510177 -0.884128
H 1.769950 -0.511095 0.893832
H -0.296213 0.494572 0.857974
6

C 1.407061 0.001445 0.002409
O 0.010392 -0.043797 -0.075429
H 1.770684 1.030465 0.004516
H 1.781786 -0.510172 -0.884127
H 1.769942 -0.511093 0.893826
H -0.296525 0.495132 0.858966
6

C 1.407011 0.001448 0.002411
O 0.010756 -0.044375 -0.076423
H 1.770689 1.030473 0.004519
H 1.781787 -0.510167 -0.884127
H 1.769935 -0.511090 0.893820
H -0.296837 0.495691 0.859959
6

C 1.406961 0.001450 0.002414
O 0.011120 -0.044953 -0.077417
H 1.770694 1.030480 0.004523
H 1.781788 -0.510161 -0.884126
H 1.769927 -0.511087 0.893814
H -0.297150 0.496251 0.860951
6

C 1.406911 0.001453 0.002417
O 0.011484 -0.045531 -0.078410
H 1.770699 1.030488 0.004526
H 1.781789 -0.510156 -0.884125
H 1.769919 -0.511085 0.893809
H -0.297462 0.496810 0.861943
6

C 1.406861 0.001455 0.002420
O 0.011849 -0.046108 -0.079404
H 1.770703 1.030496 0.004529
H 1.781790 -0.510151 -0.884124
H 1.769911 -0.511082 0.893803
H -0.297774 0.497370 0.862936
6

C 1.406811 0.001458 0.002423
O 0.012213 -0.046686 -0.080397
H 1.770708 1.030504 0.004532
H 1.781791 -0.510146 -0.884123
H 1.769904 -0.511079 0.893797
H -0.298087 0.497930 0.863928
6

C 1.406760 0.001460 0.002426
O 0.012577 -0.047264 -0.081391
H 1.770713 1.030512 0.004535
H 1.781792 -0.510141 -0.884122
H 1.769896 -0.511077 0.893791
H -0.298399 0.498489 0.864921
6

C 1.406710 0.001463 0.002429
O 0.012941 -0.047842 -0.082384
H 1.770718 1.030520 0.004538
H 1.781794 -0.510135 -0.884121
H 1.769888 -0.511074 0.893785
H -0.298711 0.499049 0.865913
6

C 1.406660 0.001465 0.002431
O 0.013306 -0.048419 -0.083378
H 1.770723 1.030528 0.004542
H 1.781795 -0.510130 -0.884120
H 1.769880 -0.511071 0.893779
H -0.299023 0.499608 0.866906
6

C 1.406610 0.001468 0.002434
O 0.013670 -0.048997 -0.084371
H 1.770727 1.030536 0.004545
H 1.781796 -0.510125 -0.884119
H 1.769873 -0.511069 0.893774
H -0.299336 0.500168 0.867898
6

C 1.406560 0.001470 0.002437
O 0.014034 -0.049575 -0.085365
H 1.770732 1.030543 0.004548
H 1.781797 -0.510120 -0.884119
H 1.769865 -0.511066 0.893768
H -0.299648 0.500727 0.868891
6

C 1.406510 0.001473 0.002440
O 0.014398 -0.050153 -0.086359
H 1.770737 1.030551 0.004551
H 1.781798 -0.510114 -0.884118
H 1.769857 -0.511063 0.893762
H -0.299960 0.501287 0.869883
6

C 1.406460 0.001475 0.002443
O 0.014763 -0.050730 -0.087352
H 1.770742 1.030559 0.004554
H 1.781799 -0.510109 -0.884117
H 1.769849 -0.511061 0.893756
H -0.300273 0.501846 0.870876
6

C 1.406409 0.001477 0.002446
O 0.015127 -0.051308 -0.088346
H 1.770747 1.030567 0.004557
H 1.781800 -0.510104 -0.884116
H 1.769842 -0.511058 0.893750
H -0.300585 0.502406 0.871868
6

C 1.406359 0.001480 0.002449
O 0.015491 -0.051886 -0.089339
H 1.770752 1.030575 0.004560
H 1.781801 -0.510099 -0.884115
H 1.769834 -0.511055 0.893744
H -0.300897 0.502965 0.872861
6

C 1.406309 0.001482 0.002451
O 0.015855 -0.052464 -0.090333
H 1.770756 1.030583 0.004564
H 1.781802 -0.510094 -0.884114
H 1.769826 -0.511053 0.893739
H -0.301209 0.503525 0.873853
6

C 1.406259 0.001485 0.002454
O 0.016220 -0.053041 -0.091326
H 1.770761 1.030591 0.004567
H 1.781804 -0.510088 -0.884113
H 1.769818 -0.511050 0.893733
H -0.301522 0.504084 0.874846
6

C 1.406209 0.001487 0.002457
O 0.016584 -0.053619 -0.092320
H 1.770766 1.030599 0.004570
H 1.781805 -0.510083 -0.884112
H 1.769810 -0.511047 0.893727
H -0.301834 0.504644 0.875838
6

C 1.406159 0.001490 0.002460
O 0.016948 -0.054197 -0.093313
H 1.770771 1.030606 0.004573
H 1.781806 -0.510078 -0.884111
H 1.769803 -0.511045 0.893721
H -0.302146 0.505203 0.876831
6

C 1.406109 0.001492 0.002463
O 0.017312 -0.054775 -0.094307
H 1.770776 1.030614 0.004576
H 1.781807 -0.510073 -0.884111
H 1.769795 -0.511042 0.893715
H -0.302459 0.505763 0.877823
6

C 1.406058 0.001495 0.002466
O 0.017677 -0.055352 -0.095300
H 1.770780 1.030622 0.004579
H 1.781808 -0.510067 -0.884110
H 1.769787 -0.511039 0.893709
H -0.302771 0.506322 0.878816
6

C 1.406008 0.001497 0.002469
O 0.018041 -0.055930 -0.096294
H 1.770785 1.030630 0.004583
H 1.781809 -0.510062 -0.884109
H 1.769779 -0.511037 0.893704
H -0.303083 0.506882 0.879808
6

C 1.405958 0.001500 0.002471
O 0.018405 -0.056508 -0.097288
H 1.770790 1.030638 0.004586
H 1.781810 -0.510057 -0.884108
H 1.769772 -0.511034 0.893698
H -0.303395 0.507441 0.880801
6

C 1.405908 0.001502 0.002474
O 0.018770 -0.057086 -0.098281
H 1.770795 1.030646 0.004589
H 1.781811 -0.510052 -0.884107
H 1.769764 -0.511031 0.893692
H -0.303708 0.508001 0.881793
6

C 1.405858 0.001505 0.002477
O 0.019134 -0.057663 -0.099275
H 1.770800 1.030654 0.004592
H 1.781812 -0.510047 -0.884106
H 1.769756 -0.511029 0.893686
H -0.304020 0.508560 0.882785
6

C 1.405808 0.001507 0.002480
O 0.019498 -0.058241 -0.100268
H 1.770805 1.030662 0.004595
H 1.781814 -0.510041 -0.884105
H 1.769748 -0.511026 0.893680
H -0.304332 0.509120 0.883778
6

C 1.405758 0.001509 0.002483
O 0.019862 -0.058819 -0.101262
H 1.770809 1.030669 0.004598
H 1.781815 -0.510036 -0.884104
H 1.769741 -0.511023 0.893675
H -0.304645 0.509680 0.884770
6

C 1.405707 0.001512 0.002486
O 0.020227 -0.059397 -0.102255
H 1.770814 1.030677 0.004602
H 1.781816 -0.510031 -0.884103
H 1.769733 -0.511021 0.893669
H -0.304957 0.510239 0.885763
6

C 1.405657 0.001514 0.002489
O 0.020591 -0.059974 -0.103249
H 1.770819 1.030685 0.004605
H 1.781817 -0.510026 -0.884103
H 1.769725 -0.511018 0.893663
H -0.305269 0.510799 0.886755
6

C 1.405607 0.001517 0.002491
O 0.020955 -0.060552 -0.104242
H 1.770824 1.030693 0.004608
H 1.781818 -0.510020 -0.884102
H 1.769717 -0.511015 0.893657
H -0.305581 0.511358 0.887748
6

C 1.405557 0.001519 0.002494
O 0.021319 -0.061130 -0.105236
H 1.770829 1.030701 0.004611
H 1.781819 -0.510015 -0.884101
H 1.769710 -0.511013 0.893651
H -0.305894 0.511918 0.888740
6

C 1.405507 0.001522 0.002497
O 0.021684 -0.061708 -0.106230
H 1.770833 1.030709 0.004614
H 1.781820 -0.510010 -0.884100
H 1.769702 -0.511010 0.893645
H -0.306206 0.512477 0.889733
6

C 1.405457 0.001524 0.002500
O 0.022048 -0.062285 -0.107223
H 1.770838 1.030717 0.004617
H 1.781821 -0.510005 -0.884099
H 1.769694 -0.511007 0.893640
H -0.306518 0.513037 0.890725
6

C 1.405407 0.001527 0.002503
O 0.022412 -0.062863 -0.108217
H 1.770843 1.030725 0.004620
H 1.781822 -0.510000 -0.884098
H 1.769686 -0.511005 0.893634
H -0.306831 0.513596 0.891718
6

C 1.405356 0.001529 0.002506
O 0.022776 -0.063441 -0.109210
H 1.770848 1.030732 0.004624
H 1.781824 -0.509994 -0.884097
H 1.769679 -0.511002 0.893628
H -0.307143 0.514156 0.892710
6

C 1.405306 0.001532 0.002508
O 0.023141 -0.064019 -0.110204
H 1.770853 1.030740 0.004627
H 1.781825 -0.509989 -0.884096
H 1.769671 -0.510999 0.893622
H -0.307455 0.514715 0.893703
6

C 1.405256 0.001534 0.002511
O 0.023505 -0.064596 -0.111197
H 1.770858 1.030748 0.004630
H 1.781826 -0.509984 -0.884095
H 1.769663 -0.510997 0.893616
H -0.307768 0.515275 0.894695
6

C 1.405206 0.001537 0.002514
O 0.023869 -0.065174 -0.112191
H 1.770862 1.030756 0.004633
H 1.781827 -0.509979 -0.884095
H 1.769655 -0.510994 0.893610
H -0.308080 0.515834 0.895688
6

C 1.405156 0.001539 0.002517
O 0.024233 -0.065752 -0.113184
H 1.770867 1.030764 0.004636
H 1.781828 -0.509973 -0.884094
H 1.769648 -0.510991 0.893605
H -0.308392 0.516394 0.896680
6

C 1.405106 0.001542 0.002520
O 0.024598 -0.066330 -0.114178
H 1.770872 1.030772 0.004639
H 1.781829 -0.509968 -0.884093
H 1.769640 -0.510989 0.893599
H -0.308704 0.516953 0.897673
6

C 1.405056 0.001544 0.002523
O 0.024962 -0.066907 -0.115171
H 1.770877 1.030780 0.004643
H 1.781830 -0.509963 -0.884092
H 1.769632 -0.510986 0.893593
H -0.309017 0.517513 0.898665
