6

C 1.410020 0.001300 0.002240
O -0.011100 -0.009710 -0.016810
H 1.770400 1.030000 0.004330
H 1.781720 -0.510480 -0.884180
H 1.770400 -0.511250 0.894170
H -0.278100 0.462120 0.800410
6

C 1.410217 0.000740 0.001704
O -0.011084 -0.009698 -0.016802
H 1.770447 1.029960 0.004212
H 1.781487 -0.509939 -0.883604
H 1.770376 -0.511208 0.894240
H -0.278101 0.462125 0.800411
6

C 1.410413 0.000179 0.001169
O -0.011069 -0.009686 -0.016795
H 1.770494 1.029920 0.004093
H 1.781253 -0.509397 -0.883029
H 1.770351 -0.511166 0.894310
H -0.278102 0.462130 0.800412
6

C 1.410610 -0.000381 0.000633
O -0.011053 -0.009674 -0.016787
H 1.770540 1.029879 0.003975
H 1.781020 -0.508856 -0.882453
H 1.770327 -0.511124 0.894380
H -0.278104 0.462136 0.800413
6

C 1.410806 -0.000942 0.000097
O -0.011037 -0.009662 -0.016779
H 1.770587 1.029839 0.003856
H 1.780786 -0.508315 -0.881877
H 1.770302 -0.511082 0.894449
H -0.278105 0.462141 0.800414
6

C 1.411003 -0.001502 -0.000438
O -0.011021 -0.009650 -0.016771
H 1.770634 1.029799 0.003738
H 1.780553 -0.507773 -0.881302
H 1.770278 -0.511040 0.894519
H -0.278106 0.462146 0.800414
6

C 1.411199 -0.002062 -0.000974
O -0.011006 -0.009638 -0.016764
H 1.770681 1.029759 0.003619
H 1.780319 -0.507232 -0.880726
H 1.770253 -0.510998 0.894589
H -0.278107 0.462151 0.800415
6

C 1.411396 -0.002623 -0.001510
O -0.010990 -0.009626 -0.016756
H 1.770728 1.029719 0.003501
H 1.780086 -0.506691 -0.880151
H 1.770229 -0.510956 0.894659
H -0.278108 0.462157 0.800416
6

C 1.411592 -0.003183 -0.002045
O -0.010974 -0.009614 -0.016748
H 1.770775 1.029678 0.003382
H 1.779852 -0.506149 -0.879575
H 1.770204 -0.510913 0.894729
H -0.278110 0.462162 0.800417
6

C 1.411789 -0.003744 -0.002581
O -0.010958 -0.009602 -0.016741
H 1.770821 1.029638 0.003264
H 1.779619 -0.505608 -0.878999
H 1.770180 -0.510871 0.894799
H -0.278111 0.462167 0.800418
6

C 1.411986 -0.004304 -0.003116
O -0.010943 -0.009590 -0.016733
H 1.770868 1.029598 0.003145
H 1.779385 -0.505067 -0.878424
H 1.770156 -0.510829 0.894869
H -0.278112 0.462172 0.800419
6

C 1.412182 -0.004864 -0.003652
O -0.010927 -0.009578 -0.016725
H 1.770915 1.029558 0.003027
H 1.779152 -0.504525 -0.877848
H 1.770131 -0.510787 0.894938
H -0.278113 0.462177 0.800420
6

C 1.412379 -0.005425 -0.004188
O -0.010911 -0.009566 -0.016717
H 1.770962 1.029517 0.002909
H 1.778919 -0.503984 -0.877272
H 1.770107 -0.510745 0.895008
H -0.278114 0.462183 0.800421
6

C 1.412575 -0.005985 -0.004723
O -0.010896 -0.009554 -0.016710
H 1.771009 1.029477 0.002790
H 1.778685 -0.503443 -0.876697
H 1.770082 -0.510703 0.895078
H -0.278116 0.462188 0.800422
6

C 1.412772 -0.006546 -0.005259
O -0.010880 -0.009542 -0.016702
H 1.771055 1.029437 0.002672
H 1.778452 -0.502901 -0.876121
H 1.770058 -0.510661 0.895148
H -0.278117 0.462193 0.800422
6

C 1.412968 -0.007106 -0.005795
O -0.010864 -0.009530 -0.016694
H 1.771102 1.029397 0.002553
H 1.778218 -0.502360 -0.875546
H 1.770033 -0.510619 0.895218
H -0.278118 0.462198 0.800423
6

C 1.413165 -0.007666 -0.006330
O -0.010848 -0.009518 -0.016687
H 1.771149 1.029357 0.002435
H 1.777985 -0.501819 -0.874970
H 1.770009 -0.510577 0.895288
H -0.278119 0.462204 0.800424
6

C 1.413361 -0.008227 -0.006866
O -0.010833 -0.009506 -0.016679
H 1.771196 1.029316 0.002316
H 1.777751 -0.501277 -0.874394
H 1.769984 -0.510535 0.895358
H -0.278120 0.462209 0.800425
6

C 1.413558 -0.008787 -0.007402
O -0.010817 -0.009494 -0.016671
H 1.771243 1.029276 0.002198
H 1.777518 -0.500736 -0.873819
H 1.769960 -0.510493 0.895427
H -0.278121 0.462214 0.800426
6

C 1.413754 -0.009348 -0.007937
O -0.010801 -0.009482 -0.016663
H 1.771290 1.029236 0.002079
H 1.777284 -0.500195 -0.873243
H 1.769936 -0.510451 0.895497
H -0.278123 0.462219 0.800427
6

C 1.413951 -0.009908 -0.008473
O -0.010786 -0.009470 -0.016656
H 1.771336 1.029196 0.001961
H 1.777051 -0.499653 -0.872667
H 1.769911 -0.510409 0.895567
H -0.278124 0.462224 0.800428
6

C 1.414148 -0.010468 -0.009009
O -0.010770 -0.009458 -0.016648
H 1.771383 1.029156 0.001843
H 1.776817 -0.499112 -0.872092
H 1.769887 -0.510367 0.895637
H -0.278125 0.462230 0.800429
6

C 1.414344 -0.011029 -0.009544
O -0.010754 -0.009446 -0.016640
H 1.771430 1.029115 0.001724
H 1.776584 -0.498571 -0.871516
H 1.769862 -0.510325 0.895707
H -0.278126 0.462235 0.800430
6

C 1.414541 -0.011589 -0.010080
O -0.010738 -0.009434 -0.016632
H 1.771477 1.029075 0.001606
H 1.776351 -0.498029 -0.870941
H 1.769838 -0.510283 0.895777
H -0.278127 0.462240 0.800430
6

C 1.414737 -0.012150 -0.010616
O -0.010723 -0.009422 -0.016625
H 1.771524 1.029035 0.001487
H 1.776117 -0.497488 -0.870365
H 1.769813 -0.510240 0.895847
H -0.278129 0.462245 0.800431
6

C 1.414934 -0.012710 -0.011151
O -0.010707 -0.009410 -0.016617
H 1.771571 1.028995 0.001369
H 1.775884 -0.496947 -0.869789
H 1.769789 -0.510198 0.895917
H -0.278130 0.462251 0.800432
6

C 1.415130 -0.013270 -0.011687
O -0.010691 -0.009398 -0.016609
H 1.771617 1.028954 0.001250
H 1.775650 -0.496405 -0.869214
H 1.769764 -0.510156 0.895986
H -0.278131 0.462256 0.800433
6

C 1.415327 -0.013831 -0.012222
O -0.010675 -0.009386 -0.016602
H 1.771664 1.028914 0.001132
H 1.775417 -0.495864 -0.868638
H 1.769740 -0.510114 0.896056
H -0.278132 0.462261 0.800434
6

C 1.415523 -0.014391 -0.012758
O -0.010660 -0.009374 -0.016594
H 1.771711 1.028874 0.001013
H 1.775183 -0.495323 -0.868062
H 1.769715 -0.510072 0.896126
H -0.278133 0.462266 0.800435
6

C 1.415720 -0.014952 -0.013294
O -0.010644 -0.009362 -0.016586
H 1.771758 1.028834 0.000895
H 1.774950 -0.494781 -0.867487
H 1.769691 -0.510030 0.896196
H -0.278135 0.462271 0.800436
6

C 1.415917 -0.015512 -0.013829
O -0.010628 -0.009350 -0.016578
H 1.771805 1.028794 0.000776
H 1.774716 -0.494240 -0.866911
H 1.769667 -0.509988 0.896266
H -0.278136 0.462277 0.800437
6

C 1.416113 -0.016072 -0.014365
O -0.010613 -0.009338 -0.016571
H 1.771851 1.028753 0.000658
H 1.774483 -0.493699 -0.866335
H 1.769642 -0.509946 0.896336
H -0.278137 0.462282 0.800438
6

C 1.416310 -0.016633 -0.014901
O -0.010597 -0.009326 -0.016563
H 1.771898 1.028713 0.000540
H 1.774249 -0.493157 -0.865760
H 1.769618 -0.509904 0.896406
H -0.278138 0.462287 0.800438
6

C 1.416506 -0.017193 -0.015436
O -0.010581 -0.009314 -0.016555
H 1.771945 1.028673 0.000421
H 1.774016 -0.492616 -0.865184
H 1.769593 -0.509862 0.896475
H -0.278139 0.462292 0.800439
6

C 1.416703 -0.017754 -0.015972
O -0.010565 -0.009302 -0.016548
H 1.771992 1.028633 0.000303
H 1.773783 -0.492075 -0.864609
H 1.769569 -0.509820 0.896545
H -0.278141 0.462298 0.800440
6

C 1.416899 -0.018314 -0.016508
O -0.010550 -0.009290 -0.016540
H 1.772039 1.028593 0.000184
H 1.773549 -0.491533 -0.864033
H 1.769544 -0.509778 0.896615
H -0.278142 0.462303 0.800441
6

C 1.417096 -0.018874 -0.017043
O -0.010534 -0.009278 -0.016532
H 1.772086 1.028552 0.000066
H 1.773316 -0.490992 -0.863457
H 1.769520 -0.509736 0.896685
H -0.278143 0.462308 0.800442
6

C 1.417292 -0.019435 -0.017579
O -0.010518 -0.009266 -0.016524
H 1.772132 1.028512 -0.000053
H 1.773082 -0.490451 -0.862882
H 1.769495 -0.509694 0.896755
H -0.278144 0.462313 0.800443
6

C 1.417489 -0.019995 -0.018115
O -0.010503 -0.009254 -0.016517
H 1.772179 1.028472 -0.000171
H 1.772849 -0.489909 -0.862306
H 1.769471 -0.509652 0.896825
H -0.278145 0.462318 0.800444
6

C 1.417685 -0.020556 -0.018650
O -0.010487 -0.009242 -0.016509
H 1.772226 1.028432 -0.000290
H 1.772615 -0.489368 -0.861730
H 1.769447 -0.509610 0.896895
H -0.278147 0.462324 0.800445
6

C 1.417882 -0.021116 -0.019186
O -0.010471 -0.009230 -0.016501
H 1.772273 1.028392 -0.000408
H 1.772382 -0.488827 -0.861155
H 1.769422 -0.509567 0.896964
H -0.278148 0.462329 0.800446
6

C 1.418079 -0.021677 -0.019722
O -0.010455 -0.009218 -0.016494
H 1.772320 1.028351 -0.000527
H 1.772148 -0.488285 -0.860579
H 1.769398 -0.509525 0.897034
H -0.278149 0.462334 0.800447
6

C 1.418275 -0.022237 -0.020257
O -0.010440 -0.009206 -0.016486
H 1.772366 1.028311 -0.000645
H 1.771915 -0.487744 -0.860004
H 1.769373 -0.509483 0.897104
H -0.278150 0.462339 0.800447
6

C 1.418472 -0.022797 -0.020793
O -0.010424 -0.009194 -0.016478
H 1.772413 1.028271 -0.000763
H 1.771681 -0.487203 -0.859428
H 1.769349 -0.509441 0.897174
H -0.278151 0.462345 0.800448
6

C 1.418668 -0.023358 -0.021328
O -0.010408 -0.009182 -0.016470
H 1.772460 1.028231 -0.000882
H 1.771448 -0.486661 -0.858852
H 1.769324 -0.509399 0.897244
H -0.278152 0.462350 0.800449
6

C 1.418865 -0.023918 -0.021864
O -0.010392 -0.009170 -0.016463
H 1.772507 1.028190 -0.001000
H 1.771215 -0.486120 -0.858277
H 1.769300 -0.509357 0.897314
H -0.278154 0.462355 0.800450
6

C 1.419061 -0.024479 -0.022400
O -0.010377 -0.009158 -0.016455
H 1.772554 1.028150 -0.001119
H 1.770981 -0.485579 -0.857701
H 1.769275 -0.509315 0.897384
H -0.278155 0.462360 0.800451
6

C 1.419258 -0.025039 -0.022935
O -0.010361 -0.009146 -0.016447
H 1.772601 1.028110 -0.001237
H 1.770748 -0.485037 -0.857125
H 1.769251 -0.509273 0.897453
H -0.278156 0.462365 0.800452
6

C 1.419454 -0.025599 -0.023471
O -0.010345 -0.009134 -0.016440
H 1.772647 1.028070 -0.001356
H 1.770514 -0.484496 -0.856550
H 1.769227 -0.509231 0.897523
H -0.278157 0.462371 0.800453
6

C 1.419651 -0.026160 -0.024007
O -0.010330 -0.009122 -0.016432
H 1.772694 1.028030 -0.001474
H 1.770281 -0.483955 -0.855974
H 1.769202 -0.509189 0.897593
H -0.278158 0.462376 0.800454
6

C 1.419848 -0.026720 -0.024542
O -0.010314 -0.009110 -0.016424
H 1.772741 1.027989 -0.001593
H 1.770047 -0.483413 -0.855399
H 1.769178 -0.509147 0.897663
H -0.278160 0.462381 0.800455
6

C 1.420044 -0.027281 -0.025078
O -0.010298 -0.009098 -0.016416
H 1.772788 1.027949 -0.001711
H 1.769814 -0.482872 -0.854823
H 1.769153 -0.509105 0.897733
H -0.278161 0.462386 0.800455
6

C 1.420241 -0.027841 -0.025614
O -0.010282 -0.009086 -0.016409
H 1.772835 1.027909 -0.001829
H 1.769580 -0.482331 -0.854247
H 1.769129 -0.509063 0.897803
H -0.278162 0.462392 0.800456
6

C 1.420437 -0.028401 -0.026149
O -0.010267 -0.009074 -0.016401
H 1.772882 1.027869 -0.001948
H 1.769347 -0.481789 -0.853672
H 1.769104 -0.509021 0.897873
H -0.278163 0.462397 0.800457
6

C 1.420634 -0.028962 -0.026685
O -0.010251 -0.009062 -0.016393
H 1.772928 1.027829 -0.002066
H 1.769113 -0.481248 -0.853096
H 1.769080 -0.508979 0.897942
H -0.278164 0.462402 0.800458
6

C 1.420830 -0.029522 -0.027221
O -0.010235 -0.009050 -0.016386
H 1.772975 1.027788 -0.002185
H 1.768880 -0.480707 -0.852520
H 1.769055 -0.508937 0.898012
H -0.278166 0.462407 0.800459
6

C 1.421027 -0.030083 -0.027756
O -0.010220 -0.009038 -0.016378
H 1.773022 1.027748 -0.002303
H 1.768647 -0.480165 -0.851945
H 1.769031 -0.508894 0.898082
H -0.278167 0.462412 0.800460
6

C 1.421223 -0.030643 -0.028292
O -0.010204 -0.009026 -0.016370
H 1.773069 1.027708 -0.002422
H 1.768413 -0.479624 -0.851369
H 1.769007 -0.508852 0.898152
H -0.278168 0.462418 0.800461
6

C 1.421420 -0.031203 -0.028828
O -0.010188 -0.009014 -0.016362
H 1.773116 1.027668 -0.002540
H 1.768180 -0.479083 -0.850794
H 1.768982 -0.508810 0.898222
H -0.278169 0.462423 0.800462
6

C 1.421616 -0.031764 -0.029363
O -0.010172 -0.009002 -0.016355
H 1.773162 1.027627 -0.002659
H 1.767946 -0.478541 -0.850218
H 1.768958 -0.508768 0.898292
H -0.278170 0.462428 0.800463
6

C 1.421813 -0.032324 -0.029899
O -0.010157 -0.008990 -0.016347
H 1.773209 1.027587 -0.002777
H 1.767713 -0.478000 -0.849642
H 1.768933 -0.508726 0.898362
H -0.278172 0.462433 0.800463
6

C 1.422010 -0.032885 -0.030434
O -0.010141 -0.008978 -0.016339
H 1.773256 1.027547 -0.002896
H 1.767479 -0.477459 -0.849067
H 1.768909 -0.508684 0.898432
H -0.278173 0.462439 0.800464
6

C 1.422206 -0.033445 -0.030970
O -0.010125 -0.008966 -0.016331
H 1.773303 1.027507 -0.003014
H 1.767246 -0.476917 -0.848491
H 1.768884 -0.508642 0.898501
H -0.278174 0.462444 0.800465
6

C 1.422403 -0.034005 -0.031506
O -0.010109 -0.008954 -0.016324
H 1.773350 1.027467 -0.003132
H 1.767012 -0.476376 -0.847915
H 1.768860 -0.508600 0.898571
H -0.278175 0.462449 0.800466
6

C 1.422599 -0.034566 -0.032041
O -0.010094 -0.008942 -0.016316
H 1.773397 1.027426 -0.003251
H 1.766779 -0.475835 -0.847340
H 1.768835 -0.508558 0.898641
H -0.278176 0.462454 0.800467
6

C 1.422796 -0.035126 -0.032577
O -0.010078 -0.008930 -0.016308
H 1.773443 1.027386 -0.003369
H 1.766545 -0.475293 -0.846764
H 1.768811 -0.508516 0.898711
H -0.278178 0.462459 0.800468
6

C 1.422992 -0.035687 -0.033113
O -0.010062 -0.008918 -0.016301
H 1.773490 1.027346 -0.003488
H 1.766312 -0.474752 -0.846188
H 1.768787 -0.508474 0.898781
H -0.278179 0.462465 0.800469
6

C 1.423189 -0.036247 -0.033648
O -0.010047 -0.008906 -0.016293
H 1.773537 1.027306 -0.003606
H 1.766079 -0.474211 -0.845613
H 1.768762 -0.508432 0.898851
H -0.278180 0.462470 0.800470
6

C 1.423385 -0.036807 -0.034184
O -0.010031 -0.008894 -0.016285
H 1.773584 1.027266 -0.003725
H 1.765845 -0.473669 -0.845037
H 1.768738 -0.508390 0.898921
H -0.278181 0.462475 0.800471
6

C 1.423582 -0.037368 -0.034720
O -0.010015 -0.008882 -0.016277
H 1.773631 1.027225 -0.003843
H 1.765612 -0.473128 -0.844462
H 1.768713 -0.508348 0.898990
H -0.278182 0.462480 0.800471
6

C 1.423779 -0.037928 -0.035255
O -0.009999 -0.008870 -0.016270
H 1.773677 1.027185 -0.003962
H 1.765378 -0.472587 -0.843886
H 1.768689 -0.508306 0.899060
H -0.278184 0.462486 0.800472
6

C 1.423975 -0.038489 -0.035791
O -0.009984 -0.008858 -0.016262
H 1.773724 1.027145 -0.004080
H 1.765145 -0.472045 -0.843310
H 1.768664 -0.508264 0.899130
H -0.278185 0.462491 0.800473
6

C 1.424172 -0.039049 -0.036327
O -0.009968 -0.008846 -0.016254
H 1.773771 1.027105 -0.004199
H 1.764911 -0.471504 -0.842735
H 1.768640 -0.508221 0.899200
H -0.278186 0.462496 0.800474
6

C 1.424368 -0.039609 -0.036862
O -0.009952 -0.008834 -0.016247
H 1.773818 1.027065 -0.004317
H 1.764678 -0.470963 -0.842159
H 1.768615 -0.508179 0.899270
H -0.278187 0.462501 0.800475
6

C 1.424565 -0.040170 -0.037398
O -0.009937 -0.008822 -0.016239
H 1.773865 1.027024 -0.004435
H 1.764444 -0.470421 -0.841583
H 1.768591 -0.508137 0.899340
H -0.278188 0.462506 0.800476
6

C 1.424761 -0.040730 -0.037934
O -0.009921 -0.008810 -0.016231
H 1.773912 1.026984 -0.004554
H 1.764211 -0.469880 -0.841008
H 1.768566 -0.508095 0.899410
H -0.278189 0.462512 0.800477
6

C 1.424958 -0.041291 -0.038469
O -0.009905 -0.008798 -0.016223
H 1.773958 1.026944 -0.004672
H 1.763977 -0.469339 -0.840432
H 1.768542 -0.508053 0.899479
H -0.278191 0.462517 0.800478
6

C 1.425154 -0.041851 -0.039005
O -0.009889 -0.008786 -0.016216
H 1.774005 1.026904 -0.004791
H 1.763744 -0.468797 -0.839857
H 1.768518 -0.508011 0.899549
H -0.278192 0.462522 0.800479
6

C 1.425351 -0.042411 -0.039540
O -0.009874 -0.008774 -0.016208
H 1.774052 1.026863 -0.004909
H 1.763511 -0.468256 -0.839281
H 1.768493 -0.507969 0.899619
H -0.278193 0.462527 0.800479
6

C 1.425547 -0.042972 -0.040076
O -0.009858 -0.008762 -0.016200
H 1.774099 1.026823 -0.005028
H 1.763277 -0.467715 -0.838705
H 1.768469 -0.507927 0.899689
H -0.278194 0.462533 0.800480
6

C 1.425744 -0.043532 -0.040612
O -0.009842 -0.008750 -0.016193
H 1.774146 1.026783 -0.005146
H 1.763044 -0.467173 -0.838130
H 1.768444 -0.507885 0.899759
H -0.278195 0.462538 0.800481
6

C 1.425941 -0.044093 -0.041147
O -0.009826 -0.008738 -0.016185
H 1.774193 1.026743 -0.005265
H 1.762810 -0.466632 -0.837554
H 1.768420 -0.507843 0.899829
H -0.278197 0.462543 0.800482
6

C 1.426137 -0.044653 -0.041683
O -0.009811 -0.008726 -0.016177
H 1.774239 1.026703 -0.005383
H 1.762577 -0.466091 -0.836978
H 1.768395 -0.507801 0.899899
H -0.278198 0.462548 0.800483
6

C 1.426334 -0.045213 -0.042219
O -0.009795 -0.008714 -0.016169
H 1.774286 1.026662 -0.005501
H 1.762343 -0.465549 -0.836403
H 1.768371 -0.507759 0.899968
H -0.278199 0.462553 0.800484
6

C 1.426530 -0.045774 -0.042754
O -0.009779 -0.008702 -0.016162
H 1.774333 1.026622 -0.005620
H 1.762110 -0.465008 -0.835827
H 1.768346 -0.507717 0.900038
H -0.278200 0.462559 0.800485
6

C 1.426727 -0.046334 -0.043290
O -0.009764 -0.008690 -0.016154
H 1.774380 1.026582 -0.005738
H 1.761876 -0.464467 -0.835252
H 1.768322 -0.507675 0.900108
H -0.278201 0.462564 0.800486
6

C 1.426923 -0.046895 -0.043826
O -0.009748 -0.008678 -0.016146
H 1.774427 1.026542 -0.005857
H 1.761643 -0.463925 -0.834676
H 1.768298 -0.507633 0.900178
H -0.278203 0.462569 0.800487
6

C 1.427120 -0.047455 -0.044361
O -0.009732 -0.008666 -0.016139
H 1.774473 1.026502 -0.005975
H 1.761409 -0.463384 -0.834100
H 1.768273 -0.507591 0.900248
H -0.278204 0.462574 0.800487
6

C 1.427316 -0.048015 -0.044897
O -0.009716 -0.008654 -0.016131
H 1.774520 1.026461 -0.006094
H 1.761176 -0.462843 -0.833525
H 1.768249 -0.507548 0.900318
H -0.278205 0.462580 0.800488
6

C 1.427513 -0.048576 -0.045433
O -0.009701 -0.008642 -0.016123
H 1.774567 1.026421 -0.006212
H 1.760943 -0.462301 -0.832949
H 1.768224 -0.507506 0.900388
H -0.278206 0.462585 0.800489
6

C 1.427710 -0.049136 -0.045968
O -0.009685 -0.008630 -0.016115
H 1.774614 1.026381 -0.006331
H 1.760709 -0.461760 -0.832373
H 1.768200 -0.507464 0.900457
H -0.278207 0.462590 0.800490
6

C 1.427906 -0.049697 -0.046504
O -0.009669 -0.008618 -0.016108
H 1.774661 1.026341 -0.006449
H 1.760476 -0.461219 -0.831798
H 1.768175 -0.507422 0.900527
H -0.278209 0.462595 0.800491
6

C 1.428103 -0.050257 -0.047040
O -0.009653 -0.008606 -0.016100
H 1.774708 1.026300 -0.006568
H 1.760242 -0.460677 -0.831222
H 1.768151 -0.507380 0.900597
H -0.278210 0.462600 0.800492
6

C 1.428299 -0.050817 -0.047575
O -0.009638 -0.008594 -0.016092
H 1.774754 1.026260 -0.006686
H 1.760009 -0.460136 -0.830646
H 1.768126 -0.507338 0.900667
H -0.278211 0.462606 0.800493
6

C 1.428496 -0.051378 -0.048111
O -0.009622 -0.008582 -0.016085
H 1.774801 1.026220 -0.006804
H 1.759775 -0.459595 -0.830071
H 1.768102 -0.507296 0.900737
H -0.278212 0.462611 0.800494
6

C 1.428692 -0.051938 -0.048646
O -0.009606 -0.008570 -0.016077
H 1.774848 1.026180 -0.006923
H 1.759542 -0.459053 -0.829495
H 1.768078 -0.507254 0.900807
H -0.278213 0.462616 0.800495
6

C 1.428889 -0.052499 -0.049182
O -0.009591 -0.008558 -0.016069
H 1.774895 1.026140 -0.007041
H 1.759308 -0.458512 -0.828920
H 1.768053 -0.507212 0.900877
H -0.278215 0.462621 0.800495
6

C 1.429085 -0.053059 -0.049718
O -0.009575 -0.008546 -0.016061
H 1.774942 1.026099 -0.007160
H 1.759075 -0.457971 -0.828344
H 1.768029 -0.507170 0.900947
H -0.278216 0.462627 0.800496
6

C 1.429282 -0.053619 -0.050253
O -0.009559 -0.008534 -0.016054
H 1.774988 1.026059 -0.007278
H 1.758841 -0.457429 -0.827768
H 1.768004 -0.507128 0.901016
H -0.278217 0.462632 0.800497
6

C 1.429478 -0.054180 -0.050789
O -0.009543 -0.008522 -0.016046
H 1.775035 1.026019 -0.007397
H 1.758608 -0.456888 -0.827193
H 1.767980 -0.507086 0.901086
H -0.278218 0.462637 0.800498
